   32
 
N       1.419445    0.303925    0.218806
N      -5.637774   -0.200376   -0.198076
C      -1.394051    0.271243    0.263448
C      -2.875180    0.143820    0.183812
C       2.827450    0.121023    0.038172
C      -0.673711    1.113123   -0.666008
C      -0.662443   -0.410758    1.222245
C       0.702585    1.082598   -0.672881
C       0.778728   -0.205797    1.370114
C      -3.668340    1.203146   -0.227266
C      -3.524416   -1.102953    0.524890
C      -5.127646    1.112249   -0.214639
C      -4.878832   -1.230913    0.311877
C       3.727855    0.235728    1.123218
C       3.333777   -0.184815   -1.246507
C       5.102662    0.050131    0.920062
C       4.710589   -0.355290   -1.449756
C       5.624928   -0.240466   -0.368650
H      -1.199883    1.722708   -1.417548
H      -1.153588   -1.038142    1.985369
H       1.308059    1.648735   -1.400961
H       1.348000   -1.045263    1.810814
H      -3.235131    2.190616   -0.458676
H      -2.948139   -1.977258    0.866096
H      -5.664029    1.758824   -0.935641
H      -5.414179   -2.181182    0.482020
H       3.334762    0.511064    2.120245
H       2.635602   -0.314637   -2.093537
H       5.795059    0.151374    1.776637
H       5.086530   -0.602652   -2.460007
Cl     -5.806785    2.098750    1.458416
Cl      1.005689    1.084465    2.951679
