   176
cell= 34.83918 0.00000 0.00000 0.00000 30.60000 0.00000 0.00000 0.00000 30.60000 nsc= 1 1 1
Au  0.00000  0.00000  0.00000
Au  0.00000  2.04000  2.04000
Au  2.04000  0.00000  2.04000
Au  2.04000  2.04000  0.00000
Au  0.00000  0.00000  4.08000
Au  0.00000  2.04000  6.12000
Au  2.04000  0.00000  6.12000
Au  2.04000  2.04000  4.08000
Au  0.00000  0.00000  8.16000
Au  0.00000  2.04000  10.20000
Au  2.04000  0.00000  10.20000
Au  2.04000  2.04000  8.16000
Au  0.00000  4.08000  0.00000
Au  0.00000  6.12000  2.04000
Au  2.04000  4.08000  2.04000
Au  2.04000  6.12000  0.00000
Au  0.00000  4.08000  4.08000
Au  0.00000  6.12000  6.12000
Au  2.04000  4.08000  6.12000
Au  2.04000  6.12000  4.08000
Au  0.00000  4.08000  8.16000
Au  0.00000  6.12000  10.20000
Au  2.04000  4.08000  10.20000
Au  2.04000  6.12000  8.16000
Au  0.00000  8.16000  0.00000
Au  0.00000  10.20000  2.04000
Au  2.04000  8.16000  2.04000
Au  2.04000  10.20000  0.00000
Au  0.00000  8.16000  4.08000
Au  0.00000  10.20000  6.12000
Au  2.04000  8.16000  6.12000
Au  2.04000  10.20000  4.08000
Au  0.00000  8.16000  8.16000
Au  0.00000  10.20000  10.20000
Au  2.04000  8.16000  10.20000
Au  2.04000  10.20000  8.16000
Au  4.08000  0.00000  0.00000
Au  4.08000  2.04000  2.04000
Au  6.12000  0.00000  2.04000
Au  6.12000  2.04000  0.00000
Au  4.08000  0.00000  4.08000
Au  4.08000  2.04000  6.12000
Au  6.12000  0.00000  6.12000
Au  6.12000  2.04000  4.08000
Au  4.08000  0.00000  8.16000
Au  4.08000  2.04000  10.20000
Au  6.12000  0.00000  10.20000
Au  6.12000  2.04000  8.16000
Au  4.08000  4.08000  0.00000
Au  4.08000  6.12000  2.04000
Au  6.12000  4.08000  2.04000
Au  6.12000  6.12000  0.00000
Au  4.08000  4.08000  4.08000
Au  4.08000  6.12000  6.12000
Au  6.12000  4.08000  6.12000
Au  6.12000  6.12000  4.08000
Au  4.08000  4.08000  8.16000
Au  4.08000  6.12000  10.20000
Au  6.12000  4.08000  10.20000
Au  6.12000  6.12000  8.16000
Au  4.08000  8.16000  0.00000
Au  4.08000  10.20000  2.04000
Au  6.12000  8.16000  2.04000
Au  6.12000  10.20000  0.00000
Au  4.08000  8.16000  4.08000
Au  4.08000  10.20000  6.12000
Au  6.12000  8.16000  6.12000
Au  6.12000  10.20000  4.08000
Au  4.08000  8.16000  8.16000
Au  4.08000  10.20000  10.20000
Au  6.12000  8.16000  10.20000
Au  6.12000  10.20000  8.16000
N  14.88629  3.54033  6.70746
N  21.94351  4.04463  6.29057
C  17.69978  3.57301  6.75210
C  19.18091  3.70043  6.67246
C  13.47828  3.72323  6.52682
C  16.97944  2.73113  5.82264
C  16.96817  4.25501  7.71089
C  15.60315  2.76165  5.81577
C  15.52700  4.05005  7.85876
C  19.97407  2.64110  6.26138
C  19.83015  4.94720  7.01354
C  21.43338  2.73200  6.27401
C  21.18456  5.07516  6.80053
C  12.57788  3.60852  7.61187
C  12.97195  4.02907  5.24214
C  11.20307  3.79412  7.40871
C  11.59514  4.19954  5.03889
C  10.68080  4.08472  6.12000
H  17.50561  2.12154  5.07110
H  17.45932  4.88239  8.47402
H  14.99767  2.19552  5.08769
H  14.95773  4.88951  8.29946
H  19.54086  1.65363  6.02997
H  19.25387  5.82151  7.35475
H  21.96976  2.08543  5.55301
H  21.71991  6.02543  6.97067
H  12.97097  3.33319  8.60890
H  13.67013  4.15889  4.39511
H  10.51067  3.69288  8.26529
H  11.21920  4.44690  4.02864
Cl  22.11252  1.74550  7.94707
Cl  15.30004  2.75979  9.44033
Au  26.67918  0.00000  0.00000
Au  26.67918  2.04000  2.04000
Au  28.71918  0.00000  2.04000
Au  28.71918  2.04000  0.00000
Au  26.67918  0.00000  4.08000
Au  26.67918  2.04000  6.12000
Au  28.71918  0.00000  6.12000
Au  28.71918  2.04000  4.08000
Au  26.67918  0.00000  8.16000
Au  26.67918  2.04000  10.20000
Au  28.71918  0.00000  10.20000
Au  28.71918  2.04000  8.16000
Au  26.67918  4.08000  0.00000
Au  26.67918  6.12000  2.04000
Au  28.71918  4.08000  2.04000
Au  28.71918  6.12000  0.00000
Au  26.67918  4.08000  4.08000
Au  26.67918  6.12000  6.12000
Au  28.71918  4.08000  6.12000
Au  28.71918  6.12000  4.08000
Au  26.67918  4.08000  8.16000
Au  26.67918  6.12000  10.20000
Au  28.71918  4.08000  10.20000
Au  28.71918  6.12000  8.16000
Au  26.67918  8.16000  0.00000
Au  26.67918  10.20000  2.04000
Au  28.71918  8.16000  2.04000
Au  28.71918  10.20000  0.00000
Au  26.67918  8.16000  4.08000
Au  26.67918  10.20000  6.12000
Au  28.71918  8.16000  6.12000
Au  28.71918  10.20000  4.08000
Au  26.67918  8.16000  8.16000
Au  26.67918  10.20000  10.20000
Au  28.71918  8.16000  10.20000
Au  28.71918  10.20000  8.16000
Au  30.75918  0.00000  0.00000
Au  30.75918  2.04000  2.04000
Au  32.79918  0.00000  2.04000
Au  32.79918  2.04000  0.00000
Au  30.75918  0.00000  4.08000
Au  30.75918  2.04000  6.12000
Au  32.79918  0.00000  6.12000
Au  32.79918  2.04000  4.08000
Au  30.75918  0.00000  8.16000
Au  30.75918  2.04000  10.20000
Au  32.79918  0.00000  10.20000
Au  32.79918  2.04000  8.16000
Au  30.75918  4.08000  0.00000
Au  30.75918  6.12000  2.04000
Au  32.79918  4.08000  2.04000
Au  32.79918  6.12000  0.00000
Au  30.75918  4.08000  4.08000
Au  30.75918  6.12000  6.12000
Au  32.79918  4.08000  6.12000
Au  32.79918  6.12000  4.08000
Au  30.75918  4.08000  8.16000
Au  30.75918  6.12000  10.20000
Au  32.79918  4.08000  10.20000
Au  32.79918  6.12000  8.16000
Au  30.75918  8.16000  0.00000
Au  30.75918  10.20000  2.04000
Au  32.79918  8.16000  2.04000
Au  32.79918  10.20000  0.00000
Au  30.75918  8.16000  4.08000
Au  30.75918  10.20000  6.12000
Au  32.79918  8.16000  6.12000
Au  32.79918  10.20000  4.08000
Au  30.75918  8.16000  8.16000
Au  30.75918  10.20000  10.20000
Au  32.79918  8.16000  10.20000
Au  32.79918  10.20000  8.16000
