144
cell= 33.90000 0.00000 0.00000 0.00000 30.60000 0.00000 0.00000 0.00000 18.36000 nsc= 1 1 1
Au  0.00000  0.00000  0.00000
Au  0.00000  2.04000  2.04000
Au  2.04000  0.00000  2.04000
Au  2.04000  2.04000  0.00000
Au  0.00000  0.00000  4.08000
Au  0.00000  2.04000  6.12000
Au  2.04000  0.00000  6.12000
Au  2.04000  2.04000  4.08000
Au  0.00000  4.08000  0.00000
Au  0.00000  6.12000  2.04000
Au  2.04000  4.08000  2.04000
Au  2.04000  6.12000  0.00000
Au  0.00000  4.08000  4.08000
Au  0.00000  6.12000  6.12000
Au  2.04000  4.08000  6.12000
Au  2.04000  6.12000  4.08000
Au  0.00000  8.16000  0.00000
Au  0.00000  10.20000  2.04000
Au  2.04000  8.16000  2.04000
Au  2.04000  10.20000  0.00000
Au  0.00000  8.16000  4.08000
Au  0.00000  10.20000  6.12000
Au  2.04000  8.16000  6.12000
Au  2.04000  10.20000  4.08000
Au  4.08000  0.00000  0.00000
Au  4.08000  2.04000  2.04000
Au  6.12000  0.00000  2.04000
Au  6.12000  2.04000  0.00000
Au  4.08000  0.00000  4.08000
Au  4.08000  2.04000  6.12000
Au  6.12000  0.00000  6.12000
Au  6.12000  2.04000  4.08000
Au  4.08000  4.08000  0.00000
Au  4.08000  6.12000  2.04000
Au  6.12000  4.08000  2.04000
Au  6.12000  6.12000  0.00000
Au  4.08000  4.08000  4.08000
Au  4.08000  6.12000  6.12000
Au  6.12000  4.08000  6.12000
Au  6.12000  6.12000  4.08000
Au  4.08000  8.16000  0.00000
Au  4.08000  10.20000  2.04000
Au  6.12000  8.16000  2.04000
Au  6.12000  10.20000  0.00000
Au  4.08000  8.16000  4.08000
Au  4.08000  10.20000  6.12000
Au  6.12000  8.16000  6.12000
Au  6.12000  10.20000  4.08000
C  8.12000  2.04000  4.08000
C  8.83000  3.26976  4.08000
C  10.25000  3.26976  4.08000
C  10.96000  2.04000  4.08000
C  12.38000  2.04000  4.08000
C  13.09000  3.26976  4.08000
C  14.51000  3.26976  4.08000
C  15.22000  2.04000  4.08000
C  16.64000  2.04000  4.08000
C  17.35000  3.26976  4.08000
C  18.77000  3.26976  4.08000
C  19.48000  2.04000  4.08000
C  20.90000  2.04000  4.08000
C  21.61000  3.26976  4.08000
C  23.03000  3.26976  4.08000
C  23.74000  2.04000  4.08000
C  8.12000  4.49951  4.08000
C  8.83000  5.72927  4.08000
C  10.25000  5.72927  4.08000
C  10.96000  4.49951  4.08000
C  12.38000  4.49951  4.08000
C  13.09000  5.72927  4.08000
C  14.51000  5.72927  4.08000
C  15.22000  4.49951  4.08000
C  16.64000  4.49951  4.08000
C  17.35000  5.72927  4.08000
C  18.77000  5.72927  4.08000
C  19.48000  4.49951  4.08000
C  20.90000  4.49951  4.08000
C  21.61000  5.72927  4.08000
C  23.03000  5.72927  4.08000
C  23.74000  4.49951  4.08000
C  8.12000  6.95902  4.08000
C  8.83000  8.18878  4.08000
C  10.25000  8.18878  4.08000
C  10.96000  6.95902  4.08000
C  12.38000  6.95902  4.08000
C  13.09000  8.18878  4.08000
C  14.51000  8.18878  4.08000
C  15.22000  6.95902  4.08000
C  16.64000  6.95902  4.08000
C  17.35000  8.18878  4.08000
C  18.77000  8.18878  4.08000
C  19.48000  6.95902  4.08000
C  20.90000  6.95902  4.08000
C  21.61000  8.18878  4.08000
C  23.03000  8.18878  4.08000
C  23.74000  6.95902  4.08000
Au  25.74000  0.00000  0.00000
Au  25.74000  2.04000  2.04000
Au  27.78000  0.00000  2.04000
Au  27.78000  2.04000  0.00000
Au  25.74000  0.00000  4.08000
Au  25.74000  2.04000  6.12000
Au  27.78000  0.00000  6.12000
Au  27.78000  2.04000  4.08000
Au  25.74000  4.08000  0.00000
Au  25.74000  6.12000  2.04000
Au  27.78000  4.08000  2.04000
Au  27.78000  6.12000  0.00000
Au  25.74000  4.08000  4.08000
Au  25.74000  6.12000  6.12000
Au  27.78000  4.08000  6.12000
Au  27.78000  6.12000  4.08000
Au  25.74000  8.16000  0.00000
Au  25.74000  10.20000  2.04000
Au  27.78000  8.16000  2.04000
Au  27.78000  10.20000  0.00000
Au  25.74000  8.16000  4.08000
Au  25.74000  10.20000  6.12000
Au  27.78000  8.16000  6.12000
Au  27.78000  10.20000  4.08000
Au  29.82000  0.00000  0.00000
Au  29.82000  2.04000  2.04000
Au  31.86000  0.00000  2.04000
Au  31.86000  2.04000  0.00000
Au  29.82000  0.00000  4.08000
Au  29.82000  2.04000  6.12000
Au  31.86000  0.00000  6.12000
Au  31.86000  2.04000  4.08000
Au  29.82000  4.08000  0.00000
Au  29.82000  6.12000  2.04000
Au  31.86000  4.08000  2.04000
Au  31.86000  6.12000  0.00000
Au  29.82000  4.08000  4.08000
Au  29.82000  6.12000  6.12000
Au  31.86000  4.08000  6.12000
Au  31.86000  6.12000  4.08000
Au  29.82000  8.16000  0.00000
Au  29.82000  10.20000  2.04000
Au  31.86000  8.16000  2.04000
Au  31.86000  10.20000  0.00000
Au  29.82000  8.16000  4.08000
Au  29.82000  10.20000  6.12000
Au  31.86000  8.16000  6.12000
Au  31.86000  10.20000  4.08000
