   48
sisl-version=1 cell= 8.16000000 0.00000000 0.00000000 0.00000000 30.60000000 0.00000000 0.00000000 0.00000000 18.36000000  nsc= 1 1 1
Au  0.00000000  0.00000000  0.00000000
Au  0.00000000  2.04000000  2.04000000
Au  2.04000000  0.00000000  2.04000000
Au  2.04000000  2.04000000  0.00000000
Au  0.00000000  0.00000000  4.08000000
Au  0.00000000  2.04000000  6.12000000
Au  2.04000000  0.00000000  6.12000000
Au  2.04000000  2.04000000  4.08000000
Au  0.00000000  4.08000000  0.00000000
Au  0.00000000  6.12000000  2.04000000
Au  2.04000000  4.08000000  2.04000000
Au  2.04000000  6.12000000  0.00000000
Au  0.00000000  4.08000000  4.08000000
Au  0.00000000  6.12000000  6.12000000
Au  2.04000000  4.08000000  6.12000000
Au  2.04000000  6.12000000  4.08000000
Au  0.00000000  8.16000000  0.00000000
Au  0.00000000  10.20000000  2.04000000
Au  2.04000000  8.16000000  2.04000000
Au  2.04000000  10.20000000  0.00000000
Au  0.00000000  8.16000000  4.08000000
Au  0.00000000  10.20000000  6.12000000
Au  2.04000000  8.16000000  6.12000000
Au  2.04000000  10.20000000  4.08000000
Au  4.08000000  0.00000000  0.00000000
Au  4.08000000  2.04000000  2.04000000
Au  6.12000000  0.00000000  2.04000000
Au  6.12000000  2.04000000  0.00000000
Au  4.08000000  0.00000000  4.08000000
Au  4.08000000  2.04000000  6.12000000
Au  6.12000000  0.00000000  6.12000000
Au  6.12000000  2.04000000  4.08000000
Au  4.08000000  4.08000000  0.00000000
Au  4.08000000  6.12000000  2.04000000
Au  6.12000000  4.08000000  2.04000000
Au  6.12000000  6.12000000  0.00000000
Au  4.08000000  4.08000000  4.08000000
Au  4.08000000  6.12000000  6.12000000
Au  6.12000000  4.08000000  6.12000000
Au  6.12000000  6.12000000  4.08000000
Au  4.08000000  8.16000000  0.00000000
Au  4.08000000  10.20000000  2.04000000
Au  6.12000000  8.16000000  2.04000000
Au  6.12000000  10.20000000  0.00000000
Au  4.08000000  8.16000000  4.08000000
Au  4.08000000  10.20000000  6.12000000
Au  6.12000000  8.16000000  6.12000000
Au  6.12000000  10.20000000  4.08000000
