   176
cell= 35.79474 0.00000 0.00000 0.00000 30.60000 0.00000 0.00000 0.00000 30.60000 nsc= 1 1 1
Au  0.00000  0.00000  0.00000
Au  0.00000  2.04000  2.04000
Au  2.04000  0.00000  2.04000
Au  2.04000  2.04000  0.00000
Au  0.00000  0.00000  4.08000
Au  0.00000  2.04000  6.12000
Au  2.04000  0.00000  6.12000
Au  2.04000  2.04000  4.08000
Au  0.00000  0.00000  8.16000
Au  0.00000  2.04000  10.20000
Au  2.04000  0.00000  10.20000
Au  2.04000  2.04000  8.16000
Au  0.00000  4.08000  0.00000
Au  0.00000  6.12000  2.04000
Au  2.04000  4.08000  2.04000
Au  2.04000  6.12000  0.00000
Au  0.00000  4.08000  4.08000
Au  0.00000  6.12000  6.12000
Au  2.04000  4.08000  6.12000
Au  2.04000  6.12000  4.08000
Au  0.00000  4.08000  8.16000
Au  0.00000  6.12000  10.20000
Au  2.04000  4.08000  10.20000
Au  2.04000  6.12000  8.16000
Au  0.00000  8.16000  0.00000
Au  0.00000  10.20000  2.04000
Au  2.04000  8.16000  2.04000
Au  2.04000  10.20000  0.00000
Au  0.00000  8.16000  4.08000
Au  0.00000  10.20000  6.12000
Au  2.04000  8.16000  6.12000
Au  2.04000  10.20000  4.08000
Au  0.00000  8.16000  8.16000
Au  0.00000  10.20000  10.20000
Au  2.04000  8.16000  10.20000
Au  2.04000  10.20000  8.16000
Au  4.08000  0.00000  0.00000
Au  4.08000  2.04000  2.04000
Au  6.12000  0.00000  2.04000
Au  6.12000  2.04000  0.00000
Au  4.08000  0.00000  4.08000
Au  4.08000  2.04000  6.12000
Au  6.12000  0.00000  6.12000
Au  6.12000  2.04000  4.08000
Au  4.08000  0.00000  8.16000
Au  4.08000  2.04000  10.20000
Au  6.12000  0.00000  10.20000
Au  6.12000  2.04000  8.16000
Au  4.08000  4.08000  0.00000
Au  4.08000  6.12000  2.04000
Au  6.12000  4.08000  2.04000
Au  6.12000  6.12000  0.00000
Au  4.08000  4.08000  4.08000
Au  4.08000  6.12000  6.12000
Au  6.12000  4.08000  6.12000
Au  6.12000  6.12000  4.08000
Au  4.08000  4.08000  8.16000
Au  4.08000  6.12000  10.20000
Au  6.12000  4.08000  10.20000
Au  6.12000  6.12000  8.16000
Au  4.08000  8.16000  0.00000
Au  4.08000  10.20000  2.04000
Au  6.12000  8.16000  2.04000
Au  6.12000  10.20000  0.00000
Au  4.08000  8.16000  4.08000
Au  4.08000  10.20000  6.12000
Au  6.12000  8.16000  6.12000
Au  6.12000  10.20000  4.08000
Au  4.08000  8.16000  8.16000
Au  4.08000  10.20000  10.20000
Au  6.12000  8.16000  10.20000
Au  6.12000  10.20000  8.16000
N  15.36406  3.54033  6.70746
N  22.42128  4.04463  6.29057
C  18.17756  3.57301  6.75210
C  19.65869  3.70043  6.67246
C  13.95606  3.72323  6.52682
C  17.45722  2.73113  5.82264
C  17.44595  4.25501  7.71089
C  16.08092  2.76165  5.81577
C  16.00478  4.05005  7.85876
C  20.45185  2.64110  6.26138
C  20.30793  4.94720  7.01354
C  21.91116  2.73200  6.27401
C  21.66234  5.07516  6.80053
C  13.05565  3.60852  7.61187
C  13.44973  4.02907  5.24214
C  11.68085  3.79412  7.40871
C  12.07292  4.19954  5.03889
C  11.15858  4.08472  6.12000
H  17.98339  2.12154  5.07110
H  17.93710  4.88239  8.47402
H  15.47545  2.19552  5.08769
H  15.43551  4.88951  8.29946
H  20.01864  1.65363  6.02997
H  19.73165  5.82151  7.35475
H  22.44754  2.08543  5.55301
H  22.19769  6.02543  6.97067
H  13.44875  3.33319  8.60890
H  14.14791  4.15889  4.39511
H  10.98845  3.69288  8.26529
H  11.69698  4.44690  4.02864
Cl  22.59029  1.74550  7.94707
Cl  15.77782  2.75979  9.44033
Au  27.63474  0.00000  0.00000
Au  27.63474  2.04000  2.04000
Au  29.67474  0.00000  2.04000
Au  29.67474  2.04000  0.00000
Au  27.63474  0.00000  4.08000
Au  27.63474  2.04000  6.12000
Au  29.67474  0.00000  6.12000
Au  29.67474  2.04000  4.08000
Au  27.63474  0.00000  8.16000
Au  27.63474  2.04000  10.20000
Au  29.67474  0.00000  10.20000
Au  29.67474  2.04000  8.16000
Au  27.63474  4.08000  0.00000
Au  27.63474  6.12000  2.04000
Au  29.67474  4.08000  2.04000
Au  29.67474  6.12000  0.00000
Au  27.63474  4.08000  4.08000
Au  27.63474  6.12000  6.12000
Au  29.67474  4.08000  6.12000
Au  29.67474  6.12000  4.08000
Au  27.63474  4.08000  8.16000
Au  27.63474  6.12000  10.20000
Au  29.67474  4.08000  10.20000
Au  29.67474  6.12000  8.16000
Au  27.63474  8.16000  0.00000
Au  27.63474  10.20000  2.04000
Au  29.67474  8.16000  2.04000
Au  29.67474  10.20000  0.00000
Au  27.63474  8.16000  4.08000
Au  27.63474  10.20000  6.12000
Au  29.67474  8.16000  6.12000
Au  29.67474  10.20000  4.08000
Au  27.63474  8.16000  8.16000
Au  27.63474  10.20000  10.20000
Au  29.67474  8.16000  10.20000
Au  29.67474  10.20000  8.16000
Au  31.71474  0.00000  0.00000
Au  31.71474  2.04000  2.04000
Au  33.75474  0.00000  2.04000
Au  33.75474  2.04000  0.00000
Au  31.71474  0.00000  4.08000
Au  31.71474  2.04000  6.12000
Au  33.75474  0.00000  6.12000
Au  33.75474  2.04000  4.08000
Au  31.71474  0.00000  8.16000
Au  31.71474  2.04000  10.20000
Au  33.75474  0.00000  10.20000
Au  33.75474  2.04000  8.16000
Au  31.71474  4.08000  0.00000
Au  31.71474  6.12000  2.04000
Au  33.75474  4.08000  2.04000
Au  33.75474  6.12000  0.00000
Au  31.71474  4.08000  4.08000
Au  31.71474  6.12000  6.12000
Au  33.75474  4.08000  6.12000
Au  33.75474  6.12000  4.08000
Au  31.71474  4.08000  8.16000
Au  31.71474  6.12000  10.20000
Au  33.75474  4.08000  10.20000
Au  33.75474  6.12000  8.16000
Au  31.71474  8.16000  0.00000
Au  31.71474  10.20000  2.04000
Au  33.75474  8.16000  2.04000
Au  33.75474  10.20000  0.00000
Au  31.71474  8.16000  4.08000
Au  31.71474  10.20000  6.12000
Au  33.75474  8.16000  6.12000
Au  33.75474  10.20000  4.08000
Au  31.71474  8.16000  8.16000
Au  31.71474  10.20000  10.20000
Au  33.75474  8.16000  10.20000
Au  33.75474  10.20000  8.16000
